Test_Network/condensed/network_5/Feeder_7/Lines.txt
New Line.LINE52 Bus1=52 Bus2=53 phases=3 Linecode=4c_.1 Length=10.5984 Units=m
New Line.LINE54 Bus1=53 Bus2=55 phases=3 Linecode=4c_.1 Length=6.5193 Units=m
New Line.LINE63 Bus1=61 Bus2=64 phases=3 Linecode=4c_.1 Length=5.7073 Units=m
New Line.LINE66 Bus1=64 Bus2=67 phases=3 Linecode=4c_.1 Length=0.72801 Units=m
New Line.LINE67 Bus1=64 Bus2=68 phases=3 Linecode=2c_.0225 Length=11.0414 Units=m
New Line.LINE208 Bus1=203 Bus2=209 phases=3 Linecode=4c_.1 Length=7.2754 Units=m
New Line.LINE306 Bus1=304 Bus2=307 phases=3 Linecode=4c_.1 Length=6.6734 Units=m
New Line.LINE309 Bus1=307 Bus2=310 phases=3 Linecode=25_SAC_XC Length=6.1571 Units=m
New Line.LINE312 Bus1=310 Bus2=313 phases=3 Linecode=25_SAC_XC Length=5.9635 Units=m
New Line.LINECmpd_0 Bus1=174 Bus2=287 phases=3 Linecode=2c_.0225 Length=13.54415 Units=m
New Line.LINECmpd_1 Bus1=1 Bus2=52 phases=3 Linecode=4c_.1 Length=36.611572 Units=m
New Line.LINECmpd_2 Bus1=152 Bus2=230 phases=3 Linecode=2c_.0225 Length=15.370298 Units=m
New Line.LINECmpd_3 Bus1=268 Bus2=275 phases=3 Linecode=25_SAC_XC Length=14.8992 Units=m
New Line.LINECmpd_4 Bus1=95 Bus2=123 phases=3 Linecode=4c_.1 Length=10.17705 Units=m
New Line.LINECmpd_5 Bus1=135 Bus2=251 phases=3 Linecode=2c_.0225 Length=13.59658 Units=m
New Line.LINECmpd_6 Bus1=298 Bus2=304 phases=3 Linecode=4c_.1 Length=9.448 Units=m
New Line.LINECmpd_7 Bus1=135 Bus2=152 phases=3 Linecode=4c_.1 Length=8.54389 Units=m
New Line.LINECmpd_8 Bus1=67 Bus2=84 phases=3 Linecode=4c_.1 Length=10.21753 Units=m
New Line.LINECmpd_9 Bus1=234 Bus2=260 phases=3 Linecode=4c_.1 Length=2.00397 Units=m
New Line.LINECmpd_10 Bus1=152 Bus2=174 phases=3 Linecode=4c_.1 Length=8.84602 Units=m
New Line.LINECmpd_11 Bus1=123 Bus2=135 phases=3 Linecode=4c_.1 Length=9.63275 Units=m
New Line.LINECmpd_12 Bus1=203 Bus2=214 phases=3 Linecode=25_SAC_XC Length=12.3666 Units=m
New Line.LINECmpd_13 Bus1=268 Bus2=292 phases=3 Linecode=4c_.1 Length=6.63116 Units=m
New Line.LINECmpd_14 Bus1=209 Bus2=234 phases=3 Linecode=4c_.1 Length=12.1973 Units=m
New Line.LINECmpd_15 Bus1=184 Bus2=203 phases=3 Linecode=4c_.1 Length=9.85543 Units=m
New Line.LINECmpd_16 Bus1=292 Bus2=297 phases=3 Linecode=25_SAC_XC Length=9.9731 Units=m
New Line.LINECmpd_17 Bus1=292 Bus2=298 phases=3 Linecode=4c_.1 Length=8.4114 Units=m
New Line.LINECmpd_18 Bus1=68 Bus2=116 phases=3 Linecode=2c_.0225 Length=18.58766 Units=m
New Line.LINECmpd_19 Bus1=234 Bus2=243 phases=3 Linecode=25_SAC_XC Length=13.3407 Units=m
New Line.LINECmpd_20 Bus1=55 Bus2=63 phases=3 Linecode=2c_.0225 Length=12.0986 Units=m
New Line.LINECmpd_21 Bus1=68 Bus2=79 phases=3 Linecode=2c_.0225 Length=8.9769 Units=m
New Line.LINECmpd_22 Bus1=123 Bus2=129 phases=3 Linecode=2c_.0225 Length=11.5797 Units=m
New Line.LINECmpd_23 Bus1=260 Bus2=268 phases=3 Linecode=4c_.1 Length=9.8702 Units=m
New Line.LINECmpd_24 Bus1=95 Bus2=103 phases=3 Linecode=2c_.0225 Length=11.8349 Units=m
New Line.LINECmpd_25 Bus1=298 Bus2=303 phases=3 Linecode=25_SAC_XC Length=10.2928 Units=m
New Line.LINECmpd_26 Bus1=304 Bus2=309 phases=3 Linecode=25_SAC_XC Length=10.3554 Units=m
New Line.LINECmpd_27 Bus1=84 Bus2=95 phases=3 Linecode=4c_.1 Length=6.1317 Units=m
New Line.LINECmpd_28 Bus1=174 Bus2=184 phases=3 Linecode=4c_.1 Length=10.5406 Units=m
New Line.LINECmpd_29 Bus1=184 Bus2=193 phases=3 Linecode=2c_.0225 Length=14.6401 Units=m
New Line.LINECmpd_30 Bus1=260 Bus2=267 phases=3 Linecode=25_SAC_XC Length=13.857 Units=m
New Line.LINECmpd_31 Bus1=61 Bus2=69 phases=3 Linecode=2c_.0225 Length=11.5378 Units=m
New Line.LINECmpd_32 Bus1=53 Bus2=60 phases=3 Linecode=2c_.0225 Length=11.1266 Units=m
New Line.LINECmpd_33 Bus1=209 Bus2=221 phases=3 Linecode=25_SAC_XC Length=12.7261 Units=m
New Line.LINECmpd_34 Bus1=84 Bus2=92 phases=3 Linecode=2c_.0225 Length=11.6931 Units=m
New Line.LINECmpd_35 Bus1=67 Bus2=77 phases=3 Linecode=2c_.0225 Length=11.2685 Units=m
New Line.LINECmpd_36 Bus1=55 Bus2=61 phases=3 Linecode=4c_.1 Length=10.191 Units=m
New Line.LINECmpd_37 Bus1=52 Bus2=57 phases=3 Linecode=2c_.0225 Length=11.3919 Units=m
